%nproc=1
%mem=1GB
%nosave
%chk=test.chk
# HF/gen opt pseudo=read SCF=tight Test Pop=(readradii,MK) iop(6/33=2) iop(6/42=6) iop(6/50=1)

test.mol

0 1
 C        1.2080  0.6971  0.0000
 Si        2.8352  1.6378  0.0000
 H        2.5629  3.0976  -0.0000
 H        3.6141  1.2795  -1.2125
 H        3.6141  1.2795  1.2125
 C        0.0000  1.3951  0.0000
 H        0.0000  2.4821  0.0000
 C        -1.2080  0.6981  0.0000
 Se        -2.9359  1.6952  0.0000
 H        -2.6621  3.1705  0.0000
 C        -1.2080  -0.6979  0.0000
 H        -2.1490  -1.2409  0.0000
 C        0.0000  -1.3949  0.0000
 H        0.0000  -2.4819  0.0000
 C        1.2080  -0.6979  0.0000
 I        3.0996  -1.7895  0.0000

H C Si Se 0
6-31G*
****
I 0
3-21G*
****

I 0
3-21G*

I 2.0
Se 1.9

ligand.gesp

I 2.0
Se 1.9

ligand.gesp

